77      
  Molekel frequency animation 
 C     -0.79726     4.21249     0.44709
 C      0.49091     4.18442     0.91801
 C      0.93869     2.82299     0.84933
 N     -0.07579     2.02356     0.34151
 C     -1.14569     2.86753     0.08572
 C      2.22918     2.38496     1.20633
 C      2.69319     1.05945     1.08810
 C      4.00044     0.61548     1.47800
 C      4.06606    -0.72992     1.22364
 C      2.79499    -1.12256     0.68432
 N      1.96020    -0.01649     0.60731
 C      2.44280    -2.44589     0.34431
 C      1.16376    -2.85325    -0.08915
 C      0.80169    -4.20425    -0.41215
 C     -0.52405    -4.19660    -0.76051
 C     -0.97616    -2.83690    -0.68851
 N      0.06631    -2.02319    -0.26813
 C     -2.28302    -2.40596    -1.00358
 C     -2.72523    -1.06663    -0.94802
 C     -4.00800    -0.61409    -1.40662
 C     -4.03434     0.74789    -1.26153
 C     -2.77213     1.14041    -0.70217
 N     -1.97597     0.01849    -0.51883
 C     -2.40064     2.47232    -0.42058
 H     -1.45630     5.07050     0.36105
 H      1.08809     5.01918     1.27031
 H      4.77041     1.24668     1.90790
 H      4.89945    -1.39943     1.41298
 H      1.47157    -5.05669    -0.36892
 H     -1.13703    -5.04484    -1.04669
 H     -4.78312    -1.24915    -1.82088
 H     -4.83524     1.42952    -1.53196
Fe     -0.00776    -0.00068     0.04670
 C     -5.34937    -4.63842    -1.05384
 H     -6.22280    -4.82818    -0.42899
 C     -4.41193    -3.68562    -0.65443
 H     -4.54665    -3.14771     0.28613
 C     -3.27157    -3.43308    -1.43703
 C     -3.09405    -4.15222    -2.63173
 H     -2.22315    -3.95343    -3.25840
 C     -4.04012    -5.09538    -3.03420
 H     -3.90296    -5.62893    -3.97642
 C     -5.16849    -5.34228    -2.24731
 H     -5.90531    -6.08022    -2.56850
 C      4.39903    -5.46745     1.56075
 H      4.32193    -6.23046     2.33718
 C      3.40973    -4.48829     1.45618
 H      2.57095    -4.48244     2.15312
 C      3.49839    -3.49261     0.46962
 C      4.59372    -3.49822    -0.41214
 H      4.66795    -2.73172    -1.18618
 C      5.57359    -4.48725    -0.31287
 H      6.41139    -4.48724    -1.01012
 C      5.47873    -5.47326     0.67210
 H      6.24824    -6.24266     0.75460
 C      5.12804     4.82497     1.43273
 H      5.93745     5.18836     0.79858
 C      4.23226     3.87780     0.93493
 H      4.33630     3.50855    -0.08633
 C      3.18334     3.40355     1.74024
 C      3.05028     3.89172     3.05032
 H      2.23779     3.52678     3.68066
 C      3.95800     4.82777     3.54942
 H      3.85252     5.18993     4.57251
 C      4.99672     5.29861     2.74121
 H      5.70657     6.02838     3.13248
 C     -5.51037     4.65496    -0.26845
 H     -6.40421     4.76688     0.34601
 C     -4.56653     3.67709     0.05250
 H     -4.72430     3.02686     0.91435
 C     -3.40099     3.53803    -0.71820
 C     -3.19530     4.39680    -1.81226
 H     -2.29855     4.28137    -2.42280
 C     -4.14873     5.36165    -2.13914
 H     -3.98918     6.00655    -3.00384
 C     -5.30785     5.49198    -1.36998
 H     -6.05049     6.24909    -1.62685
77      
  Molekel frequency animation 
 C     -0.80617     4.21246     0.44638
 C      0.48232     4.18457     0.91733
 C      0.93460     2.82324     0.84909
 N     -0.07848     2.02370     0.34138
 C     -1.15022     2.86754     0.08546
 C      2.23036     2.38545     1.20626
 C      2.69939     1.06001     1.08807
 C      4.01223     0.61616     1.47811
 C      4.07749    -0.72925     1.22367
 C      2.80066    -1.12210     0.68423
 N      1.96385    -0.01604     0.60720
 C      2.44252    -2.44566     0.34443
 C      1.15782    -2.85344    -0.08886
 C      0.79009    -4.20450    -0.41185
 C     -0.53577    -4.19663    -0.76019
 C     -0.98244    -2.83693    -0.68821
 N      0.06242    -2.02327    -0.26781
 C     -2.28395    -2.40611    -1.00333
 C     -2.72112    -1.06682    -0.94784
 C     -3.99700    -0.61472    -1.40605
 C     -4.02321     0.74727    -1.26108
 C     -2.76744     1.14013    -0.70203
 N     -1.97443     0.01833    -0.51889
 C     -2.40071     2.47209    -0.42072
 H     -1.46697     5.07031     0.36008
 H      1.07800     5.01946     1.26942
 H      4.78514     1.24729     1.90834
 H      4.91401    -1.39831     1.41340
 H      1.45724    -5.05710    -0.36867
 H     -1.15155    -5.04472    -1.04643
 H     -4.76826    -1.25016    -1.81971
 H     -4.82042     1.42869    -1.53118
Fe     -0.00927    -0.00061     0.04671
 C     -5.34698    -4.63552    -1.05676
 H     -6.21914    -4.82357    -0.43372
 C     -4.41023    -3.68309    -0.65700
 H     -4.54406    -3.14356     0.28181
 C     -3.27175    -3.43301    -1.43703
 C     -3.09529    -4.15400    -2.62955
 H     -2.22585    -3.95727    -3.25412
 C     -4.04045    -5.09649    -3.03267
 H     -3.90399    -5.63137    -3.97329
 C     -5.16709    -5.34114    -2.24819
 H     -5.90341    -6.07874    -2.56969
 C      4.39938    -5.46678     1.56176
 H      4.32219    -6.22948     2.33895
 C      3.40960    -4.48750     1.45739
 H      2.57022    -4.48097     2.15550
 C      3.49845    -3.49224     0.46977
 C      4.59443    -3.49846    -0.41310
 H      4.66881    -2.73233    -1.18794
 C      5.57472    -4.48749    -0.31390
 H      6.41298    -4.48795    -1.01204
 C      5.47971    -5.47314     0.67196
 H      6.24956    -6.24262     0.75435
 C      5.12721     4.82429     1.43433
 H      5.93627     5.18770     0.80069
 C      4.23233     3.87796     0.93587
 H      4.33671     3.50929    -0.08529
 C      3.18394     3.40369     1.74032
 C      3.05047     3.89127     3.05027
 H      2.23828     3.52622     3.68021
 C      3.95729     4.82650     3.54999
 H      3.85151     5.18814     4.57294
 C      4.99548     5.29728     2.74262
 H      5.70456     6.02655     3.13426
 C     -5.51035     4.65344    -0.26970
 H     -6.40399     4.76455     0.34417
 C     -4.56637     3.67569     0.05142
 H     -4.72380     3.02473     0.91275
 C     -3.40115     3.53776    -0.71848
 C     -3.19589     4.39733    -1.81199
 H     -2.29938     4.28270    -2.42187
 C     -4.14938     5.36192    -2.13915
 H     -3.99009     6.00737    -3.00349
 C     -5.30822     5.49127    -1.37071
 H     -6.05095     6.24819    -1.62779
77      
  Molekel frequency animation 
 C     -0.81508     4.21242     0.44566
 C      0.47373     4.18472     0.91666
 C      0.93051     2.82350     0.84885
 N     -0.08117     2.02384     0.34125
 C     -1.15475     2.86755     0.08520
 C      2.23155     2.38595     1.20618
 C      2.70558     1.06057     1.08803
 C      4.02401     0.61683     1.47822
 C      4.08891    -0.72858     1.22370
 C      2.80634    -1.12165     0.68413
 N      1.96751    -0.01559     0.60708
 C      2.44225    -2.44544     0.34455
 C      1.15188    -2.85362    -0.08857
 C      0.77849    -4.20475    -0.41155
 C     -0.54750    -4.19666    -0.75987
 C     -0.98873    -2.83697    -0.68792
 N      0.05854    -2.02336    -0.26750
 C     -2.28488    -2.40626    -1.00309
 C     -2.71700    -1.06701    -0.94765
 C     -3.98601    -0.61535    -1.40548
 C     -4.01209     0.74664    -1.26064
 C     -2.76275     1.13985    -0.70189
 N     -1.97289     0.01817    -0.51896
 C     -2.40078     2.47187    -0.42087
 H     -1.47764     5.07011     0.35911
 H      1.06790     5.01975     1.26853
 H      4.79988     1.24789     1.90877
 H      4.92857    -1.39718     1.41382
 H      1.44292    -5.05752    -0.36842
 H     -1.16606    -5.04461    -1.04617
 H     -4.75341    -1.25117    -1.81855
 H     -4.80559     1.42785    -1.53040
Fe     -0.01078    -0.00055     0.04672
 C     -5.34460    -4.63262    -1.05968
 H     -6.21547    -4.81896    -0.43846
 C     -4.40852    -3.68055    -0.65957
 H     -4.54146    -3.13942     0.27748
 C     -3.27192    -3.43294    -1.43703
 C     -3.09653    -4.15578    -2.62737
 H     -2.22855    -3.96111    -3.24983
 C     -4.04077    -5.09759    -3.03113
 H     -3.90502    -5.63381    -3.97016
 C     -5.16568    -5.34000    -2.24906
 H     -5.90151    -6.07726    -2.57089
 C      4.39973    -5.46611     1.56277
 H      4.32244    -6.22851     2.34071
 C      3.40948    -4.48671     1.45860
 H      2.56948    -4.47951     2.15788
 C      3.49852    -3.49188     0.46991
 C      4.59515    -3.49869    -0.41405
 H      4.66967    -2.73295    -1.18971
 C      5.57584    -4.48774    -0.31492
 H      6.41458    -4.48867    -1.01396
 C      5.48069    -5.47302     0.67183
 H      6.25087    -6.24258     0.75410
 C      5.12637     4.82361     1.43593
 H      5.93509     5.18703     0.80279
 C      4.23240     3.87811     0.93681
 H      4.33712     3.51003    -0.08425
 C      3.18454     3.40382     1.74040
 C      3.05066     3.89081     3.05022
 H      2.23877     3.52566     3.67976
 C      3.95658     4.82523     3.55055
 H      3.85049     5.18635     4.57337
 C      4.99424     5.29595     2.74403
 H      5.70256     6.02471     3.13604
 C     -5.51033     4.65193    -0.27095
 H     -6.40377     4.76222     0.34234
 C     -4.56621     3.67429     0.05035
 H     -4.72330     3.02260     0.91115
 C     -3.40132     3.53749    -0.71877
 C     -3.19648     4.39785    -1.81171
 H     -2.30022     4.28403    -2.42094
 C     -4.15004     5.36220    -2.13915
 H     -3.99100     6.00818    -3.00313
 C     -5.30859     5.49056    -1.37143
 H     -6.05141     6.24729    -1.62873
77      
  Molekel frequency animation 
 C     -0.80617     4.21246     0.44638
 C      0.48232     4.18457     0.91733
 C      0.93460     2.82324     0.84909
 N     -0.07848     2.02370     0.34138
 C     -1.15022     2.86754     0.08546
 C      2.23036     2.38545     1.20626
 C      2.69939     1.06001     1.08807
 C      4.01223     0.61616     1.47811
 C      4.07749    -0.72925     1.22367
 C      2.80066    -1.12210     0.68423
 N      1.96385    -0.01604     0.60720
 C      2.44252    -2.44566     0.34443
 C      1.15782    -2.85344    -0.08886
 C      0.79009    -4.20450    -0.41185
 C     -0.53577    -4.19663    -0.76019
 C     -0.98244    -2.83693    -0.68821
 N      0.06242    -2.02327    -0.26781
 C     -2.28395    -2.40611    -1.00333
 C     -2.72112    -1.06682    -0.94784
 C     -3.99700    -0.61472    -1.40605
 C     -4.02321     0.74727    -1.26108
 C     -2.76744     1.14013    -0.70203
 N     -1.97443     0.01833    -0.51889
 C     -2.40071     2.47209    -0.42072
 H     -1.46697     5.07031     0.36008
 H      1.07800     5.01946     1.26942
 H      4.78514     1.24729     1.90834
 H      4.91401    -1.39831     1.41340
 H      1.45724    -5.05710    -0.36867
 H     -1.15155    -5.04472    -1.04643
 H     -4.76826    -1.25016    -1.81971
 H     -4.82042     1.42869    -1.53118
Fe     -0.00927    -0.00061     0.04671
 C     -5.34698    -4.63552    -1.05676
 H     -6.21914    -4.82357    -0.43372
 C     -4.41023    -3.68309    -0.65700
 H     -4.54406    -3.14356     0.28181
 C     -3.27175    -3.43301    -1.43703
 C     -3.09529    -4.15400    -2.62955
 H     -2.22585    -3.95727    -3.25412
 C     -4.04045    -5.09649    -3.03267
 H     -3.90399    -5.63137    -3.97329
 C     -5.16709    -5.34114    -2.24819
 H     -5.90341    -6.07874    -2.56969
 C      4.39938    -5.46678     1.56176
 H      4.32219    -6.22948     2.33895
 C      3.40960    -4.48750     1.45739
 H      2.57022    -4.48097     2.15550
 C      3.49845    -3.49224     0.46977
 C      4.59443    -3.49846    -0.41310
 H      4.66881    -2.73233    -1.18794
 C      5.57472    -4.48749    -0.31390
 H      6.41298    -4.48795    -1.01204
 C      5.47971    -5.47314     0.67196
 H      6.24956    -6.24262     0.75435
 C      5.12721     4.82429     1.43433
 H      5.93627     5.18770     0.80069
 C      4.23233     3.87796     0.93587
 H      4.33671     3.50929    -0.08529
 C      3.18394     3.40369     1.74032
 C      3.05047     3.89127     3.05027
 H      2.23828     3.52622     3.68021
 C      3.95729     4.82650     3.54999
 H      3.85151     5.18814     4.57294
 C      4.99548     5.29728     2.74262
 H      5.70456     6.02655     3.13426
 C     -5.51035     4.65344    -0.26970
 H     -6.40399     4.76455     0.34417
 C     -4.56637     3.67569     0.05142
 H     -4.72380     3.02473     0.91275
 C     -3.40115     3.53776    -0.71848
 C     -3.19589     4.39733    -1.81199
 H     -2.29938     4.28270    -2.42187
 C     -4.14938     5.36192    -2.13915
 H     -3.99009     6.00737    -3.00349
 C     -5.30822     5.49127    -1.37071
 H     -6.05095     6.24819    -1.62779
77      
  Molekel frequency animation 
 C     -0.79726     4.21249     0.44709
 C      0.49091     4.18442     0.91801
 C      0.93869     2.82299     0.84933
 N     -0.07579     2.02356     0.34151
 C     -1.14569     2.86753     0.08572
 C      2.22918     2.38496     1.20633
 C      2.69319     1.05945     1.08810
 C      4.00044     0.61548     1.47800
 C      4.06606    -0.72992     1.22364
 C      2.79499    -1.12256     0.68432
 N      1.96020    -0.01649     0.60731
 C      2.44280    -2.44589     0.34431
 C      1.16376    -2.85325    -0.08915
 C      0.80169    -4.20425    -0.41215
 C     -0.52405    -4.19660    -0.76051
 C     -0.97616    -2.83690    -0.68851
 N      0.06631    -2.02319    -0.26813
 C     -2.28302    -2.40596    -1.00358
 C     -2.72523    -1.06663    -0.94802
 C     -4.00800    -0.61409    -1.40662
 C     -4.03434     0.74789    -1.26153
 C     -2.77213     1.14041    -0.70217
 N     -1.97597     0.01849    -0.51883
 C     -2.40064     2.47232    -0.42058
 H     -1.45630     5.07050     0.36105
 H      1.08809     5.01918     1.27031
 H      4.77041     1.24668     1.90790
 H      4.89945    -1.39943     1.41298
 H      1.47157    -5.05669    -0.36892
 H     -1.13703    -5.04484    -1.04669
 H     -4.78312    -1.24915    -1.82088
 H     -4.83524     1.42952    -1.53196
Fe     -0.00776    -0.00068     0.04670
 C     -5.34937    -4.63842    -1.05384
 H     -6.22280    -4.82818    -0.42899
 C     -4.41193    -3.68562    -0.65443
 H     -4.54665    -3.14771     0.28613
 C     -3.27157    -3.43308    -1.43703
 C     -3.09405    -4.15222    -2.63173
 H     -2.22315    -3.95343    -3.25840
 C     -4.04012    -5.09538    -3.03420
 H     -3.90296    -5.62893    -3.97642
 C     -5.16849    -5.34228    -2.24731
 H     -5.90531    -6.08022    -2.56850
 C      4.39903    -5.46745     1.56075
 H      4.32193    -6.23046     2.33718
 C      3.40973    -4.48829     1.45618
 H      2.57095    -4.48244     2.15312
 C      3.49839    -3.49261     0.46962
 C      4.59372    -3.49822    -0.41214
 H      4.66795    -2.73172    -1.18618
 C      5.57359    -4.48725    -0.31287
 H      6.41139    -4.48724    -1.01012
 C      5.47873    -5.47326     0.67210
 H      6.24824    -6.24266     0.75460
 C      5.12804     4.82497     1.43273
 H      5.93745     5.18836     0.79858
 C      4.23226     3.87780     0.93493
 H      4.33630     3.50855    -0.08633
 C      3.18334     3.40355     1.74024
 C      3.05028     3.89172     3.05032
 H      2.23779     3.52678     3.68066
 C      3.95800     4.82777     3.54942
 H      3.85252     5.18993     4.57251
 C      4.99672     5.29861     2.74121
 H      5.70657     6.02838     3.13248
 C     -5.51037     4.65496    -0.26845
 H     -6.40421     4.76688     0.34601
 C     -4.56653     3.67709     0.05250
 H     -4.72430     3.02686     0.91435
 C     -3.40099     3.53803    -0.71820
 C     -3.19530     4.39680    -1.81226
 H     -2.29855     4.28137    -2.42280
 C     -4.14873     5.36165    -2.13914
 H     -3.98918     6.00655    -3.00384
 C     -5.30785     5.49198    -1.36998
 H     -6.05049     6.24909    -1.62685
          77
77      
  Molekel frequency animation 
 C     -0.78835     4.21253     0.44780
 C      0.49950     4.18427     0.91868
 C      0.94279     2.82273     0.84957
 N     -0.07310     2.02342     0.34163
 C     -1.14116     2.86752     0.08599
 C      2.22799     2.38446     1.20641
 C      2.68699     1.05888     1.08814
 C      3.98865     0.61480     1.47788
 C      4.05464    -0.73060     1.22361
 C      2.78931    -1.12301     0.68441
 N      1.95655    -0.01693     0.60743
 C      2.44308    -2.44611     0.34418
 C      1.16970    -2.85307    -0.08944
 C      0.81329    -4.20400    -0.41245
 C     -0.51232    -4.19657    -0.76084
 C     -0.96987    -2.83686    -0.68881
 N      0.07020    -2.02310    -0.26844
 C     -2.28209    -2.40581    -1.00382
 C     -2.72934    -1.06643    -0.94820
 C     -4.01899    -0.61346    -1.40719
 C     -4.04546     0.74852    -1.26198
 C     -2.77682     1.14069    -0.70232
 N     -1.97750     0.01866    -0.51876
 C     -2.40057     2.47255    -0.42043
 H     -1.44563     5.07069     0.36203
 H      1.09819     5.01889     1.27119
 H      4.75567     1.24608     1.90747
 H      4.88489    -1.40056     1.41256
 H      1.48590    -5.05627    -0.36917
 H     -1.12252    -5.04495    -1.04694
 H     -4.79797    -1.24813    -1.82205
 H     -4.85007     1.43036    -1.53274
Fe     -0.00626    -0.00074     0.04670
 C     -5.35176    -4.64131    -1.05093
 H     -6.22647    -4.83278    -0.42425
 C     -4.41363    -3.68815    -0.65186
 H     -4.54925    -3.15185     0.29045
 C     -3.27140    -3.43316    -1.43703
 C     -3.09282    -4.15044    -2.63391
 H     -2.22046    -3.94959    -3.26268
 C     -4.03979    -5.09427    -3.03573
 H     -3.90194    -5.62650    -3.97954
 C     -5.16990    -5.34342    -2.24644
 H     -5.90721    -6.08171    -2.56730
 C      4.39867    -5.46812     1.55975
 H      4.32168    -6.23143     2.33542
 C      3.40985    -4.48908     1.45497
 H      2.57168    -4.48390     2.15074
 C      3.49832    -3.49297     0.46948
 C      4.59301    -3.49799    -0.41119
 H      4.66709    -2.73110    -1.18442
 C      5.57247    -4.48700    -0.31185
 H      6.40979    -4.48652    -1.00819
 C      5.47775    -5.47338     0.67224
 H      6.24693    -6.24270     0.75485
 C      5.12888     4.82565     1.43114
 H      5.93862     5.18902     0.79648
 C      4.23218     3.87765     0.93399
 H      4.33589     3.50780    -0.08738
 C      3.18274     3.40342     1.74016
 C      3.05008     3.89218     3.05037
 H      2.23730     3.52735     3.68111
 C      3.95871     4.82904     3.54886
 H      3.85354     5.19172     4.57208
 C      4.99796     5.29993     2.73980
 H      5.70858     6.03021     3.13070
 C     -5.51040     4.65648    -0.26721
 H     -6.40443     4.76921     0.34785
 C     -4.56669     3.67849     0.05357
 H     -4.72480     3.02899     0.91595
 C     -3.40083     3.53830    -0.71792
 C     -3.19471     4.39628    -1.81254
 H     -2.29771     4.28003    -2.42373
 C     -4.14807     5.36137    -2.13913
 H     -3.98827     6.00574    -3.00420
 C     -5.30748     5.49268    -1.36926
 H     -6.05003     6.25000    -1.62591
77      
  Molekel frequency animation 
 C     -0.77944     4.21256     0.44852
 C      0.50809     4.18412     0.91936
 C      0.94688     2.82248     0.84982
 N     -0.07041     2.02328     0.34176
 C     -1.13663     2.86751     0.08625
 C      2.22681     2.38397     1.20648
 C      2.68080     1.05832     1.08817
 C      3.97687     0.61412     1.47777
 C      4.04322    -0.73127     1.22358
 C      2.78364    -1.12346     0.68450
 N      1.95289    -0.01738     0.60755
 C      2.44335    -2.44634     0.34406
 C      1.17564    -2.85288    -0.08973
 C      0.82489    -4.20375    -0.41276
 C     -0.50059    -4.19654    -0.76116
 C     -0.96359    -2.83682    -0.68911
 N      0.07408    -2.02301    -0.26876
 C     -2.28116    -2.40566    -1.00406
 C     -2.73345    -1.06624    -0.94838
 C     -4.02999    -0.61284    -1.40776
 C     -4.05659     0.74915    -1.26242
 C     -2.78152     1.14096    -0.70246
 N     -1.97904     0.01882    -0.51870
 C     -2.40050     2.47278    -0.42028
 H     -1.43496     5.07088     0.36300
 H      1.10829     5.01861     1.27208
 H      4.74093     1.24548     1.90704
 H      4.87033    -1.40168     1.41213
 H      1.50023    -5.05585    -0.36942
 H     -1.10801    -5.04507    -1.04720
 H     -4.81283    -1.24712    -1.82322
 H     -4.86490     1.43119    -1.53352
Fe     -0.00475    -0.00080     0.04669
 C     -5.35414    -4.64421    -1.04801
 H     -6.23014    -4.83739    -0.41951
 C     -4.41534    -3.69068    -0.64929
 H     -4.55185    -3.15600     0.29478
 C     -3.27123    -3.43323    -1.43703
 C     -3.09158    -4.14866    -2.63610
 H     -2.21776    -3.94576    -3.26697
 C     -4.03947    -5.09316    -3.03726
 H     -3.90091    -5.62406    -3.98267
 C     -5.17130    -5.34455    -2.24556
 H     -5.90911    -6.08319    -2.56611
 C      4.39832    -5.46878     1.55874
 H      4.32143    -6.23241     2.33366
 C      3.40998    -4.48987     1.45376
 H      2.57241    -4.48536     2.14836
 C      3.49825    -3.49334     0.46933
 C      4.59229    -3.49775    -0.41024
 H      4.66623    -2.73049    -1.18265
 C      5.57135    -4.48676    -0.31083
 H      6.40819    -4.48581    -1.00627
 C      5.47677    -5.47349     0.67238
 H      6.24561    -6.24274     0.75509
 C      5.12971     4.82632     1.42954
 H      5.93980     5.18968     0.79438
 C      4.23211     3.87749     0.93304
 H      4.33548     3.50706    -0.08842
 C      3.18215     3.40328     1.74008
 C      3.04989     3.89264     3.05042
 H      2.23681     3.52791     3.68156
 C      3.95942     4.83031     3.54830
 H      3.85455     5.19351     4.57165
 C      4.99920     5.30126     2.73838
 H      5.71058     6.03204     3.12892
 C     -5.51042     4.65800    -0.26596
 H     -6.40465     4.77154     0.34969
 C     -4.56685     3.67989     0.05465
 H     -4.72531     3.03112     0.91755
 C     -3.40066     3.53857    -0.71763
 C     -3.19412     4.39576    -1.81282
 H     -2.29688     4.27870    -2.42467
 C     -4.14741     5.36110    -2.13912
 H     -3.98736     6.00493    -3.00455
 C     -5.30711     5.49339    -1.36854
 H     -6.04957     6.25090    -1.62497
77      
  Molekel frequency animation 
 C     -0.78835     4.21253     0.44780
 C      0.49950     4.18427     0.91868
 C      0.94279     2.82273     0.84957
 N     -0.07310     2.02342     0.34163
 C     -1.14116     2.86752     0.08599
 C      2.22799     2.38446     1.20641
 C      2.68699     1.05888     1.08814
 C      3.98865     0.61480     1.47788
 C      4.05464    -0.73060     1.22361
 C      2.78931    -1.12301     0.68441
 N      1.95655    -0.01693     0.60743
 C      2.44308    -2.44611     0.34418
 C      1.16970    -2.85307    -0.08944
 C      0.81329    -4.20400    -0.41245
 C     -0.51232    -4.19657    -0.76084
 C     -0.96987    -2.83686    -0.68881
 N      0.07020    -2.02310    -0.26844
 C     -2.28209    -2.40581    -1.00382
 C     -2.72934    -1.06643    -0.94820
 C     -4.01899    -0.61346    -1.40719
 C     -4.04546     0.74852    -1.26198
 C     -2.77682     1.14069    -0.70232
 N     -1.97750     0.01866    -0.51876
 C     -2.40057     2.47255    -0.42043
 H     -1.44563     5.07069     0.36203
 H      1.09819     5.01889     1.27119
 H      4.75567     1.24608     1.90747
 H      4.88489    -1.40056     1.41256
 H      1.48590    -5.05627    -0.36917
 H     -1.12252    -5.04495    -1.04694
 H     -4.79797    -1.24813    -1.82205
 H     -4.85007     1.43036    -1.53274
Fe     -0.00626    -0.00074     0.04670
 C     -5.35176    -4.64131    -1.05093
 H     -6.22647    -4.83278    -0.42425
 C     -4.41363    -3.68815    -0.65186
 H     -4.54925    -3.15185     0.29045
 C     -3.27140    -3.43316    -1.43703
 C     -3.09282    -4.15044    -2.63391
 H     -2.22046    -3.94959    -3.26268
 C     -4.03979    -5.09427    -3.03573
 H     -3.90194    -5.62650    -3.97954
 C     -5.16990    -5.34342    -2.24644
 H     -5.90721    -6.08171    -2.56730
 C      4.39867    -5.46812     1.55975
 H      4.32168    -6.23143     2.33542
 C      3.40985    -4.48908     1.45497
 H      2.57168    -4.48390     2.15074
 C      3.49832    -3.49297     0.46948
 C      4.59301    -3.49799    -0.41119
 H      4.66709    -2.73110    -1.18442
 C      5.57247    -4.48700    -0.31185
 H      6.40979    -4.48652    -1.00819
 C      5.47775    -5.47338     0.67224
 H      6.24693    -6.24270     0.75485
 C      5.12888     4.82565     1.43114
 H      5.93862     5.18902     0.79648
 C      4.23218     3.87765     0.93399
 H      4.33589     3.50780    -0.08738
 C      3.18274     3.40342     1.74016
 C      3.05008     3.89218     3.05037
 H      2.23730     3.52735     3.68111
 C      3.95871     4.82904     3.54886
 H      3.85354     5.19172     4.57208
 C      4.99796     5.29993     2.73980
 H      5.70858     6.03021     3.13070
 C     -5.51040     4.65648    -0.26721
 H     -6.40443     4.76921     0.34785
 C     -4.56669     3.67849     0.05357
 H     -4.72480     3.02899     0.91595
 C     -3.40083     3.53830    -0.71792
 C     -3.19471     4.39628    -1.81254
 H     -2.29771     4.28003    -2.42373
 C     -4.14807     5.36137    -2.13913
 H     -3.98827     6.00574    -3.00420
 C     -5.30748     5.49268    -1.36926
 H     -6.05003     6.25000    -1.62591
